powerflow/Codes/PF_Formulation/resultados_csv/19/3bus/ramos.csv
caso,script,branch_id,f_bus,t_bus,pf_pu,qf_pu,pt_pu,qt_pu,loss_p_pu,loss_q_pu
3bus.pwf,19,1,1,2,0.017942427744626444,-0.020243328785688405,-0.01781183423946635,0.020368871713301647,0.0001305935051600926,0.00012554292761324248
3bus.pwf,19,2,1,3,0.16533562938837865,0.02140766411405194,-0.16037509622687696,-0.016638974776475704,0.00496053316150169,0.004768689337576237
3bus.pwf,19,3,2,3,0.14771183423944245,0.04067602234094232,-0.14352491377219312,-0.03665102697463536,0.004186920467249333,0.00402499536630696
